Version 4.1
SHEET 1 880 680
WIRE 96 0 -144 0
WIRE 96 64 -96 64
WIRE -96 96 -96 64
WIRE -144 192 -144 0
WIRE -96 192 -96 176
WIRE -96 192 -144 192
WIRE -96 224 -96 192
FLAG -96 224 0
SYMBOL TPS54202_TRANS 176 32 R0
SYMATTR InstName U1
SYMBOL voltage -96 80 R0
SYMATTR InstName V1
