**$ENCRYPTED_LIB
**$INTERFACE
*$
* TPS54202
*****************************************************************************
* (C) Copyright 2017 Texas Instruments Incorporated. All rights reserved.                                            
*****************************************************************************
** This model is designed as an aid for customers of Texas Instruments.
** TI and its licensors and suppliers make no warranties, either expressed
** or implied, with respect to this model, including the warranties of 
** merchantability or fitness for a particular purpose.  The model is
** provided solely on an "as is" basis.  The entire risk as to its quality
** and performance is with the customer
*****************************************************************************
*
* This model is subject to change without notice. Texas Instruments
* Incorporated is not responsible for updating this model.
*
*****************************************************************************
*
** Released by: WEBENCH Design Center, Texas Instruments Inc.
* Part: TPS54202
* Date: 07DEC2017
* Model Type:  TRANSIENT
* Simulator: PSPICE
* Simulator Version: 16.2.0.p001
* EVM Order Number: TPS54202EVM-716
* EVM Users Guide: SLVUAP3April 2016
* Datasheet: SLVSD26  APRIL 2016
* Topologies Supported: Buck
*
* Model Version: Final 1.1
*
*****************************************************************************
*
* Updates:
*
* Final 1.1
* .IC statement from COMP node is removed
*
* Final 1.0
* Release to Web.
*
*****************************************************************************
*
* Model Usage Notes:
*
* 1. The following features have been modeled
*      a. Overvoltage protection
*      b. Overcurrent protection
*      c. SHDN functionality
*      d. Advanced Eco-mode Pulse Skip
*      e. Frequency spread spectrum
* 2. Temperature effects are not been modeled. 
* 3. Ground pins have been tied to 0V internally. 
*    Therefore, this model cannot be used for inverting topologies
*
*****************************************************************************
.SUBCKT TPS54202_TRANS GND PH VIN VSENSE EN BOOT PARAMS: STEADY_STATE=0
$CDNENCSTART
eee8c5c7a2bc4b01f045f303678664e7916da0bae22e8cb0bba041dd67c69ce448ea70148a9ac1670c8926c1ac5057c8ccfcd77bf87ca9dcf3cfcf31f72dc8df
262efab9db9cfd74bc27f931268b4061cfafcb550c4c4607a4149be2e454a3b6644126c9831a96bd5647b922eae5a7de3a2b9efc0982d4b5ad89d1f5293102a7
820c5936298d05f57c74867071d108b2e847dda77d5f94435647b922eae5a7de3a2b9efc0982d4b5807682751762e56e8fad9dd3df36eeb3afe6ef58ba52a6d0
e81221c1cdf16ac020713747a5dc5cd810d38726193e29967d1f6020c40454a761fcf0ea304985dbcae83aa10e42600e644126c9831a96bd222536b48a424ace
f45755e86b034235706b807646b803713fbc0db71a72d29e2df6f9455e83ba31e1690914d824ecaf644126c9831a96bd5647b922eae5a7defdb31f03b4c775ac
568b3ed9dd1c0cf15bddfbddd6fb0f4b3988b40d1a3cd217fbb4de522a9d27fa749d13634498f34b192fb0130cd26ef2926c7f23597e76fdb02dfdd32e6aba45
3145f96961b5993fe71f71e1875841715647b922eae5a7de3a2b9efc0982d4b5807682751762e56e8fad9dd3df36eeb31b69b042cc8871b70e46e8492f36f7bd
e0d35d1cbed38e165029fbc3d0b2142aabbab712eb06a0f6937904de005ed86b6117f239f52ee2d6db0c113a10cabb6f7c6a05e67fd634ee7901e5a885db8246
b0b3d2cf595a9f82cd9f9b0fe66d8ad1338943d068a679feed8e454ef9d89be6fbe6326c3d2a8c99726d9a7f6b37359c8318958aa75d4556dd0a70f33e2447ea
4e2689494256295447158635b18b6659b9b1213d51fc9ad3b886424db7d5a39f98261ae60b1a11e51fa218669804dd4256257244c272a1e9678b4febfc8c6605
4b6085f2012636675a0aa31c52cddba976617f42cd5d956b5647b922eae5a7de3a2b9efc0982d4b5807682751762e56e8fad9dd3df36eeb3afe6ef58ba52a6d0
2edd83f60b1089d9f6a2b547dc976ba0e4a0ed6ba11c0aae0c24f00aef03699d71b840a857d1dfe83c03086a2a2b014a04b78d2d9c43e88489d118ad06ab967a
d2bbd7e847d638e1f9160e96a49a6a05139a230acb671755a561baf2f8ca73e4372a9f54c0e78878bbbe5ed0f925e445f6bd00f90c451eac82ecadf3da0224ff
cdaa385411811e27bfd81d659a09e4b32637e9cac2aa5ceafd49a287c76beca9cf3db11be05038854d35758c28ff525c48abf060fcb7e1b967835c61454658c7
568b3ed9dd1c0cf179d5a6c8a66d5195d6eae56bdab81bc6692626bda50285388492e52ca99071378364c7c92f41da95524a1ea076b78f4b39d659b4400b9eca
78b8f55e560e60bcd892b93343f0db7eb09e2116325bc9f1bf29eb243cb365c152e74f0b06f4caed6c85d1d2ccce7c634a0cec32340d4d8d176b96ad7c466d82
3e2f6d3b6fa1f79eb9b1213d51fc9ad3b886424db7d5a39f98261ae60b1a11e51fa218669804dd4256257244c272a1e9e9af66c729376cdd5250b34c7dcd378b
2edd83f60b1089d9eb8784877639638395ab3faba914e469189c67d618e54a56726d9a7f6b37359c8318958aa75d45564651b4c215cbe2b16229de77bbf0c9c9
47158635b18b6659b9b1213d51fc9ad3b886424db7d5a39f98261ae60b1a11e51fa218669804dd4256257244c272a1e9e9af66c729376cdd5250b34c7dcd378b
4b6085f2012636675a0aa31c52cddba976617f42cd5d956b5647b922eae5a7de3a2b9efc0982d4b5807682751762e56e8fad9dd3df36eeb3afe6ef58ba52a6d0
b91d9e8a40d376dcd6eae56bdab81bc6d20ea7125a955b7c46bd49cdbb7194474de0a36a6fe1ec9df73a283c0eda2d8fd67fa11198df1f5d6a8e59197483ddd1
b0b3d2cf595a9f82239bdbe658d21d00e4a0ed6ba11c0aaedeecbe79c191d30bfbe6326c3d2a8c99e1dadca290d4dd278023e5fc6aeb89215d45734df2ec0e95
78a36153f5a7950891a41cab43ebf0f24d35758c28ff525c48abf060fcb7e1b91d1e5c60cf87fe74f0d58561785e0f289285c2c86bc88f4909c84992926ee5c9
baf8b95f70cde0d68dcea2cdd2d3d5cc9783ae8e4821c68f44286f328a01b5597353264ebf8b05510736b9aea252cd5465bd351ff9bed562dabcb2e4e3897788
04af921033965d88706b807646b803713fbc0db71a72d29e4f3fbd896a4828e4e1690914d824ecaf644126c9831a96bd5647b922eae5a7defdb31f03b4c775ac
1c405c372555c897eb87848776396383534566bf1f096407f43ced61325794ae7746eb9a2381efbd9f4549e7740746bd644126c9831a96bd222536b48a424ace
6d10a3cec69a8223d6eae56bdab81bc69737b03ee9e34ef162a6f523b8330407cfab4fb5255ef43cc950dec758b7798669325e870ce0470f4a59485ee195c3f6
0ab3c219659e810d706b807646b803713fbc0db71a72d29e1d7201171fda2c64aad0cae5ebf3019a5647b922eae5a7de3a2b9efc0982d4b5ad89d1f5293102a7
fd040dfcc8409823706b807646b80371b1662ad955fcc1457f4b1f8a5e3adbc01d6cfc4783f60667f9b40913bf926293139a230acb671755ce3d2227d1be8664
b5cfcd1c86d78ef2bf230db17611f82f5fcc330f9e96054b26b4b5d4ace535e4148fb2ac5138df9e755dadce9a194d4e75963efd3ee34e160ff63032dc4e41c4
bfd81d659a09e4b3d24b51ea77d68888d67fa11198df1f5decb1e4faaf3eb18297710d3bc9613e967ec65276d74197379b29b740d0a089bcc23515190ce963a3
4b6085f2012636675a0aa31c52cddba976617f42cd5d956b5647b922eae5a7de3a2b9efc0982d4b5807682751762e56e8fad9dd3df36eeb3afe6ef58ba52a6d0
568b3ed9dd1c0cf129022043bcd5ed693988b40d1a3cd217e87b9e059962470b749d13634498f34b556b545943cd8390db71385652045d1727d90d5db675ca0b
f2d8c87390c8c9e87557ae04f3b20763644126c9831a96bd5647b922eae5a7de3a2b9efc0982d4b5807682751762e56e8fad9dd3df36eeb3afe6ef58ba52a6d0
3e2f6d3b6fa1f79eb9b1213d51fc9ad3b886424db7d5a39f98261ae60b1a11e51fa218669804dd4256257244c272a1e9e9af66c729376cdd5250b34c7dcd378b
b12b5eec1c5c9b73a665d0fac02ce03ecfafcb550c4c46076e8bbbaf682156f94f8bfb77fa42da9c958628f42271f6a22b4c7e434143b4579ec65203f10bf7e5
8461f1485cf267f706b5d3ebb65e4c76b1662ad955fcc1457f4b1f8a5e3adbc0f4c8dcd345ffa2a5d03a7ff9fbe7078f710f626c2faf14a6f3cfcf31f72dc8df
2edd83f60b1089d9bf230db17611f82f13a3810f504848873fbc0db71a72d29e73ee4b75442a478b93f0978bcaae26c25e907deffd12c5fff9224a01a31d483a
b31205aa407e75cde847dda77d5f94435647b922eae5a7de3a2b9efc0982d4b5807682751762e56e8fad9dd3df36eeb31b69b042cc8871b70e46e8492f36f7bd
4b6085f2012636675a0aa31c52cddba976617f42cd5d956b5647b922eae5a7de3a2b9efc0982d4b5807682751762e56e8fad9dd3df36eeb3afe6ef58ba52a6d0
67bede9eb955d19858de4e583b84800884bd231bc88f9ccff9eb1be170e34511cfab4fb5255ef43c4f53d8fe7dde55a669325e870ce0470f4a59485ee195c3f6
12b13abfb8539d75eb52a68c5f21fb17b6e26668d057bceb45259ccd256c3e08db0c113a10cabb6f27d9f7e5287cba2c958628f42271f6a2d8661ea0f2294ea8
1c405c372555c897cc0121b5e20e2076534566bf1f096407dca2207a8f09afd784bd231bc88f9ccfd6d228ba50392846644126c9831a96bd222536b48a424ace
8dd626526ce960b3d6eae56bdab81bc6a77e2cb84e4c1204ba903b49c740dd533c98846e94d12e3d699c56e21b95ac5f69325e870ce0470f4a59485ee195c3f6
97f08f251d6606df706b807646b803713fbc0db71a72d29e04cc0e0f74917f5c1d6cfc4783f60667f9b40913bf926293139a230acb671755ce3d2227d1be8664
b148dedbfdf4614cafa54dcac3adf6b04f94d9e2adc60d4ea202e527c41f3dc2a55332f0110434e9a8a20b5b020902ddb09e2116325bc9f1fc96a55cc24d5638
262efab9db9cfd74cc0121b5e20e2076534566bf1f09640703aea4a5245e3afa9304af996adab1cbd6b3593c88b738384d35758c28ff525c0495b494c15cfe7a
2edd83f60b1089d9c12e63f53fc8b6c7061625d1b9c468cd3fbc0db71a72d29edc95782144cf0dcf93f0978bcaae26c25e907deffd12c5fff9224a01a31d483a
b31205aa407e75cde847dda77d5f94435647b922eae5a7de3a2b9efc0982d4b5807682751762e56e8fad9dd3df36eeb31b69b042cc8871b70e46e8492f36f7bd
4b6085f2012636675a0aa31c52cddba976617f42cd5d956b5647b922eae5a7de3a2b9efc0982d4b5807682751762e56e8fad9dd3df36eeb3afe6ef58ba52a6d0
c5ef2007c89d21bd26b975abe1d7cf1fcddea63708ec8d925fee029b6231ac4132516e860580bfac3321f9b54e45f32862461ddf12b61c027e4da490e3396144
60a188d940e604c16594e2ecfdcb7f1469325e870ce0470f8a1e36020d4faf9a7101c2026cc3cd9c68772dc8b768c9d97c429542ee8cc384213a92fda8cabc7a
bbf0a766f49a242c2637e9cac2aa5ceafd49a287c76beca9cf3db11be05038854d35758c28ff525c48abf060fcb7e1b91d1e5c60cf87fe742e70afc1220aab72
ee3f55e06536ad834b911f946254a2b449f04471aa2845a698e45f2d74d72233f8d9c61dfaa9b084faca85d0862a74fb8558c7e2e294af9c77202c37a6ea01a7
277168e0f0eaa042067269aed8f72bf2b09e2116325bc9f1bf29eb243cb365c152e74f0b06f4caed6c85d1d2ccce7c634a0cec32340d4d8d176b96ad7c466d82
c5ef2007c89d21bda380740f1d25844144803091810cc5a9d09d4b9e2c454f51875f24a1c54c4404db2817c83e6da5b4d55ce08cb26cd54acac617c6bdaebed3
2d2e22fffdc7f429b9b1213d51fc9ad3b886424db7d5a39f98261ae60b1a11e51fa218669804dd4256257244c272a1e9e9af66c729376cdd5250b34c7dcd378b
978f6ad4414288ebf4c9878b5b4675d26bc84edda24d98d414def8934ee547f8a68ba69006c80e09f1b6bc29d103b9156d913effe3ea9117c1149e604f91981f
c5ef2007c89d21bd2e6a05b88e74a12ca398b61d91de9ff5acc67aa952681beb1cb1c23e805f9b24440fff4f0aad6e9e46133aa5f361a88dd81168f118dbd0a1
8318958aa75d4556dad4b7980b83d60cd67fa11198df1f5decb1e4faaf3eb18297710d3bc9613e967ec65276d74197379b29b740d0a089bcc23515190ce963a3
bbf0a766f49a242c2637e9cac2aa5ceafd49a287c76beca9cf3db11be05038854d35758c28ff525c48abf060fcb7e1b91d1e5c60cf87fe742e70afc1220aab72
7c94182bbb79b4eccc0121b5e20e207622aa5c3d0b8457ad226103094ece2d47d67fa11198df1f5decb1e4faaf3eb18297710d3bc9613e9650b52f95710cd580
93fdac97a2ac14c6706b807646b8037182c08b3422dafc542f7017c9fbe06e6cf5f82c5cf03b037369325e870ce0470f8a1e36020d4faf9aba1b628fbfe3ba86
c5ef2007c89d21bd97b9d4d4bffd31dccddea63708ec8d920a0119a533c5418e671c486ecb584d3f9fe8a8bc2013f13047cdef514ccc4dfee4e72beed32b1f99
5911b2e9db27761795d7fcca0b5012ccb9b1213d51fc9ad3b886424db7d5a39f98261ae60b1a11e51fa218669804dd4256257244c272a1e9678b4febfc8c6605
bbf0a766f49a242c2637e9cac2aa5cea2cecad1ebf804c4bf467148f06ca8e43139a230acb671755a561baf2f8ca73e4372a9f54c0e78878da5fedfa3dac0fce
ee3f55e06536ad8366758c88713a506949f04471aa2845a63fac4ef76ee7f0e64c23313bc36e9a44f07191a5bbcd2ac694e3dbcfe43a9e1f968b9ed649fa5b08
3b2fc16f1ef46d0ec526c2f8cf611af0b09e2116325bc9f1bf29eb243cb365c152e74f0b06f4caed6c85d1d2ccce7c634a0cec32340d4d8d176b96ad7c466d82
0e585cdd3263507bf4975914beffc10b99c91e8fcd10b990b09e2116325bc9f1bf29eb243cb365c152e74f0b06f4caed6c85d1d2ccce7c63bedef664a96b3f3c
c5ef2007c89d21bd628e6c2a84cc65dd7b4b4ca211f4f47ab56f771dbde490849546d54c77a3ca323d5f7e64764c0ca408d911ebcdcdc81044d994e36eb3dd92
1ea799cf1a8612a2b09e2116325bc9f1bf29eb243cb365c152e74f0b06f4caed6c85d1d2ccce7c634a0cec32340d4d8ddc9c07cc229a892fcb31acda63b31cd7
df8f9e8caf681eff8dcea2cdd2d3d5cc9783ae8e4821c68f44286f328a01b5597353264ebf8b05510736b9aea252cd5465bd351ff9bed562dabcb2e4e3897788
011b57055c78a64a706b807646b80371a7f775d1dc8337021b14aea989c1e67cda9664e6ba6375c8c28306b5e2e018b1644126c9831a96bd222536b48a424ace
c5ef2007c89d21bde0f494962bc21b5f44803091810cc5a9a7f775d1dc833702bd768e426e93f4abf55057b4ea6b50455f409a948d7f89bbe19eb2812c55ca5c
88b96b7c831faa4a41097083f6b3a2094d35758c28ff525c48abf060fcb7e1b91d1e5c60cf87fe74f0d58561785e0f289285c2c86bc88f4909c84992926ee5c9
bbf0a766f49a242c2637e9cac2aa5cea2cecad1ebf804c4bf467148f06ca8e43139a230acb671755a561baf2f8ca73e4372a9f54c0e78878da5fedfa3dac0fce
c5ef2007c89d21bda3691f164915ef968ffb5359f864a8b78eb8bc597eb7553afe4f97f15394dcc5fa460eccc75cda6d88b96b7c831faa4af2d5e5299905ab7b
a68ba69006c80e09157dcbb6421b1256958628f42271f6a22b4c7e434143b457f4c65b60f6a4495166968cfd01222b0fc681c551445bd633f44779c376922560
4b6085f2012636675a0aa31c52cddba976617f42cd5d956b5647b922eae5a7de3a2b9efc0982d4b5807682751762e56e8fad9dd3df36eeb3afe6ef58ba52a6d0
aa25ea5fcaa1adad706b807646b80371a7f775d1dc83370215b872ab793ec9c0b727347f43209366d67fa11198df1f5decb1e4faaf3eb182bedab133aba82e23
6cdfdca4915a6a3591069a087cdcc32249f04471aa2845a6739768ee608af24d5f3d694a8facc06539859341766fc92c5647b922eae5a7defdb31f03b4c775ac
6cdfdca4915a6a35c61fad6d89342f1149f04471aa2845a62e6cce3c7df05cba4fb49efc06b2101cb09e2116325bc9f1bf29eb243cb365c181bf838f3fcb2f04
fed781830413a9c9e12fc8b50753668ae4aaf934848e6c95125b28dd33e97f3cd294e79e5148d66f551d495a72061e15a3d57a5937cf6bd0d2c0ea702584563a
e776e9b255bda08cbfd81d659a09e4b3b09e2116325bc9f1bf29eb243cb365c152e74f0b06f4caed6c85d1d2ccce7c634a0cec32340d4d8d176b96ad7c466d82
8767f397bff4c3a731bbfa71d5efb6fe102372497787b35c69325e870ce0470f8a1e36020d4faf9a7101c2026cc3cd9c68772dc8b768c9d96c8e38057438c44a
f3b03bc2449bce4082253a9df053be2d3824ce3acc2fc5246b57869162a488da19bc1774f837872f3036c9e6db19214f4d35758c28ff525c0495b494c15cfe7a
f00c56043161090e706b807646b803716648c4bc882116e258e955ebf39e9ee8c872f3a65eaafb805707199d0125a797dcb46fb9e6578c1013ccc47d6e6bffbc
8c980e460c4bd26685ca69fda8cf338a4d35758c28ff525c48abf060fcb7e1b91d1e5c60cf87fe74f0d58561785e0f289285c2c86bc88f4909c84992926ee5c9
cdaa385411811e27bfd81d659a09e4b32637e9cac2aa5cea2cecad1ebf804c4bf467148f06ca8e43139a230acb671755a561baf2f8ca73e44058044f4a4cc77c
91fda1a27d8eca7ecc0121b5e20e20765a0ca9522a9a3afd9cc2d4558710a9d705078f681274a8254d35758c28ff525c48abf060fcb7e1b967835c61454658c7
f500035ac54d811fedfde4da305f70fa0abfc569c2f155642a5aca4e740c84c832382318c30c9e82856c73755665a32d7c1d09003c66944d0b40a42bfda9593c
8675a01b2db95be7b9b1213d51fc9ad3b886424db7d5a39f98261ae60b1a11e51fa218669804dd4256257244c272a1e9e9af66c729376cdd5250b34c7dcd378b
91fda1a27d8eca7ebc27f931268b40615a0ca9522a9a3afd954ac030435791f27e03a2af52e51ef84d35758c28ff525c48abf060fcb7e1b967835c61454658c7
009880294f68ac9b706b807646b803716648c4bc882116e2d99b7daf9d1a802abb7d053fb2766b0769325e870ce0470f8a1e36020d4faf9aba1b628fbfe3ba86
415bb1896fab9a82c822e691d993506944aac1ff28ae94704f136a9cf8ac77df55111d338b10d85cf07191a5bbcd2ac6e41b8f18ae60172ba55162b4b998d498
7f9cf72fb99dbaf0b5f1c17ee7956303139a230acb671755a561baf2f8ca73e4372a9f54c0e78878bbbe5ed0f925e445f6bd00f90c451eac82ecadf3da0224ff
1cdcf530ce0544e56ba5c61c4eec550c803b61c05279b1acc3d515e8081d5494620810f926de9a08405789b08bff645660a188d940e604c1ecf22f43cd602b91
44286f328a01b55967d2eff95da562744d35758c28ff525c48abf060fcb7e1b91d1e5c60cf87fe74f0d58561785e0f289285c2c86bc88f4909c84992926ee5c9
4b6085f2012636675a0aa31c52cddba976617f42cd5d956b5647b922eae5a7de3a2b9efc0982d4b5807682751762e56e8fad9dd3df36eeb3afe6ef58ba52a6d0
9436031bba93504b706b807646b80371742871c87d4727d02ce8c4694538225f6a0ffbe33156eded08233a6915a4c6ea9bfb58f52ff3f15b612e5e524f9d9f7c
fd80f3b49cb1eb4ba286ab8191b330075911b2e9db277617a5257eba54077ab5021166ac3753b7b831bbfa71d5efb6fe825b843a3aa9ddcddabcb2e4e3897788
8811cc74461313c0706b807646b803719bfb58f52ff3f15be5e571bd35a2c1c60dc8431d62d64f25cdd6c3d82d863cfa5647b922eae5a7defdb31f03b4c775ac
1cdcf530ce0544e597b9d4d4bffd31dce4aaf934848e6c95afb6a50d058a0281d294e79e5148d66f45928fead32353f493f0978bcaae26c27846daed4c599468
4f52237e05fcdaf4b31205aa407e75cde847dda77d5f94435647b922eae5a7de3a2b9efc0982d4b5807682751762e56e8fad9dd3df36eeb3afe6ef58ba52a6d0
4b6085f2012636675a0aa31c52cddba976617f42cd5d956b5647b922eae5a7de3a2b9efc0982d4b5807682751762e56e8fad9dd3df36eeb3afe6ef58ba52a6d0
1aa46980c2ed8b3f706b807646b803719bfb58f52ff3f15b4fa90d907437664b7b1bf05f6ba318eab09e2116325bc9f1bf29eb243cb365c181bf838f3fcb2f04
e8e0b8190effa444706b807646b8037114b2c5d2f7538ee8c9ba0bd9d602ad004d35758c28ff525c48abf060fcb7e1b91d1e5c60cf87fe742e70afc1220aab72
eb36dd888e518ff7706b807646b803711f25988e60cb0edaff0aee5a81387ad90f6f3f1b6f3b3c61c00768bc30103c494d35758c28ff525c0495b494c15cfe7a
d699ae0ea3d8ca38706b807646b803711f25988e60cb0edae1e40728123bef0535df48265b44358d939916f860e69b1a4d35758c28ff525c0495b494c15cfe7a
2102d6771aef6b5a1c7c5f34a3a7dfd4f835017f3393da0af1494f1fa2b5d6f08f92da22a4244e43e8dbd8a0b393f1bc6af9d5413214ba98c27a0fe47ba19b0a
4651b4c215cbe2b1c23cdff2c91ac450b9b1213d51fc9ad3b886424db7d5a39f98261ae60b1a11e51fa218669804dd4256257244c272a1e9678b4febfc8c6605
8767f397bff4c3a731bbfa71d5efb6fe102372497787b35c69325e870ce0470f8a1e36020d4faf9a7101c2026cc3cd9c68772dc8b768c9d96c8e38057438c44a
c0f87d7ef753e539f9871118320990dfcd4bf236c5ac9de2a39e32163934cb44ecfb4487da6af5f954b20a15be9e3ab81f909d525f14700554907969001c2e02
ff122ce06a3ba92ab585b96681e0ca9b302063c5af3db6589744b87102ee975bb870b9430f19fda9b9b1213d51fc9ad3b886424db7d5a39fdfc1cd8e705f3b0a
2102d6771aef6b5a09c4739f84a8c1c0f835017f3393da0af1494f1fa2b5d6f00dd6d18fe0bad14b15230a4a7419d0c95441b52a962225c31b7e4de922487140
784dff1b2e8e2f3138380075bb5248d8d67fa11198df1f5decb1e4faaf3eb18297710d3bc9613e967ec65276d74197379b29b740d0a089bcc23515190ce963a3
cdaa385411811e27bfd81d659a09e4b32637e9cac2aa5ceafd49a287c76beca9cf3db11be05038854d35758c28ff525c48abf060fcb7e1b967835c61454658c7
2c111b14f340aa46cc0121b5e20e20768267670f17eb4a37746ef45a51ba3fbedf6192bca2ce50fd472ba4cf3e9ffb16644126c9831a96bd222536b48a424ace
795ae4a51f9fb625706b807646b803711f25988e60cb0edae1e40728123bef05452ac1e5a8f46fa8949e0297405d1edcb9b1213d51fc9ad3f715598da06c122c
2102d6771aef6b5a1b263ca8df72b77ca398b61d91de9ff5e8e8401c14e85f61c77b0b137260b18c433d0a584754d7791d24d33b9e30d851ecf22f43cd602b91
760e29ffeaf7a9ee571415143e3e61685647b922eae5a7de3a2b9efc0982d4b5807682751762e56e8fad9dd3df36eeb31b69b042cc8871b70e46e8492f36f7bd
0c660f9100171e16f9871118320990dfee7349420c0e6e7b57cd33dcdde46fbe9b0bdeb72b4222fe83060ff3622916a01f909d525f147005bc9a553a22445792
2102d6771aef6b5a6af56f2fcb564d81f835017f3393da0a623bc4b9831cda738f92da22a4244e4398a993141b6aaf3f8bc342f3e6d7d4b7277de302ba964e7b
1efa4d69287b8e8a502f880bef78c105b9b1213d51fc9ad3b886424db7d5a39f98261ae60b1a11e51fa218669804dd4256257244c272a1e9678b4febfc8c6605
cdaa385411811e27bfd81d659a09e4b32637e9cac2aa5ceafd49a287c76beca9cf3db11be05038854d35758c28ff525c48abf060fcb7e1b967835c61454658c7
e6d58580ce6458d1706b807646b803718f92da22a4244e4345b3f776abb555c4182b376870cbb47728780f6241da07e1bf1ee911780421ddf3cfcf31f72dc8df
2102d6771aef6b5a34c73dcbf92dd87268bbae480800f730f66ac2c088688d0301153a55e22f0d23dd98950287013d35360e44e94f53663399ad711d618ebf2b
9c43c24eda4802f785ca69fda8cf338a4d35758c28ff525c48abf060fcb7e1b91d1e5c60cf87fe74f0d58561785e0f289285c2c86bc88f4909c84992926ee5c9
cdaa385411811e27bfd81d659a09e4b32637e9cac2aa5ceafd49a287c76beca9cf3db11be05038854d35758c28ff525c48abf060fcb7e1b967835c61454658c7
2102d6771aef6b5a73ed0ad6b159248e8ffb5359f864a8b701153a55e22f0d23c9df3d0f1c2c7a3f99448ccca394e5f7c2a465b43e329fcc7846daed4c599468
4f52237e05fcdaf4b31205aa407e75cde847dda77d5f94435647b922eae5a7de3a2b9efc0982d4b5807682751762e56e8fad9dd3df36eeb3afe6ef58ba52a6d0
4b6085f2012636678ee5eab1ce21437b869475fcdae8706eb09e2116325bc9f1bf29eb243cb365c152e74f0b06f4caed6c85d1d2ccce7c63bedef664a96b3f3c
2102d6771aef6b5a26b975abe1d7cf1f9ebb7812456ae73f9eac18f7d69f1c6850f5236d6c6c4a84effab5b09e43f5a79c43c24eda4802f77ec09cef15c57fb0
1933952b4dcad44c74c7e4af17ab9ceb4d35758c28ff525c48abf060fcb7e1b91d1e5c60cf87fe74f0d58561785e0f289285c2c86bc88f4909c84992926ee5c9
8767f397bff4c3a731bbfa71d5efb6fe102372497787b35c69325e870ce0470f8a1e36020d4faf9a7101c2026cc3cd9c68772dc8b768c9d96c8e38057438c44a
02e9a61a946214a22a855f3abee44001b6a95c6f066ae4ef4ba26d8356597f0449b52f61f881e5d1700ad719f1cccf327362e607a4d3646341a20b700545166f
2102d6771aef6b5aac41c527dcd895158ffb5359f864a8b701153a55e22f0d23c9df3d0f1c2c7a3f360e44e94f5366339fe99de088066241d81168f118dbd0a1
8318958aa75d4556dad4b7980b83d60cd67fa11198df1f5decb1e4faaf3eb18297710d3bc9613e967ec65276d74197379b29b740d0a089bcc23515190ce963a3
bbf0a766f49a242c2637e9cac2aa5ceafd49a287c76beca9cf3db11be05038854d35758c28ff525c48abf060fcb7e1b91d1e5c60cf87fe742e70afc1220aab72
2102d6771aef6b5a08e79cbf8de54de3f835017f3393da0a6325ace0e4e9b0b88f92da22a4244e43f2a362b8d695b4e42807bfceb224ffd5f7fc657c52923c57
1efa4d69287b8e8a5911b2e9db27761795d7fcca0b5012ccb9b1213d51fc9ad3b886424db7d5a39f98261ae60b1a11e51fa218669804dd422d218db5df2c02b9
bbf0a766f49a242c2637e9cac2aa5ceafd49a287c76beca9cf3db11be05038854d35758c28ff525c48abf060fcb7e1b91d1e5c60cf87fe742e70afc1220aab72
bcfef3d752bb9f67706b807646b803718f92da22a4244e43d1b1f2d7efd67cdcb50c1561f73948dbb9b1213d51fc9ad3b886424db7d5a39fdfc1cd8e705f3b0a
9bdec3194044f5b0706b807646b803718f92da22a4244e43700d2e328bdb8ce88bc342f3e6d7d4b7ed3b3c6162886925bf1ee911780421ddf3cfcf31f72dc8df
2102d6771aef6b5aaf62c7e801e29edbf835017f3393da0aff0aee5a81387ad98f92da22a4244e436795c7af35472411944404c261bba97a655a79c683a25c1e
7bb04849f45a367238380075bb5248d8d67fa11198df1f5decb1e4faaf3eb18297710d3bc9613e967ec65276d74197379b29b740d0a089bcc23515190ce963a3
cdaa385411811e27bfd81d659a09e4b32637e9cac2aa5cea2cecad1ebf804c4bf467148f06ca8e43139a230acb671755a561baf2f8ca73e44058044f4a4cc77c
2102d6771aef6b5aa84ecbc7159c51ad8ffb5359f864a8b701153a55e22f0d231e893f2adf558e8b99448ccca394e5f7c2a465b43e329fcc7846daed4c599468
4f52237e05fcdaf4b31205aa407e75cde847dda77d5f94435647b922eae5a7de3a2b9efc0982d4b5807682751762e56e8fad9dd3df36eeb3afe6ef58ba52a6d0
4b6085f2012636678ee5eab1ce21437b312b1ac057c62ce1b09e2116325bc9f1bf29eb243cb365c152e74f0b06f4caed6c85d1d2ccce7c63bedef664a96b3f3c
2102d6771aef6b5acdf66d24c4e15e44f835017f3393da0ae1e40728123bef058f92da22a4244e43f4787cc2e94444928bc342f3e6d7d4b7956d54d86e9b7f5a
493add1c9ab5e27585ca69fda8cf338a4d35758c28ff525c48abf060fcb7e1b91d1e5c60cf87fe74f0d58561785e0f289285c2c86bc88f4909c84992926ee5c9
cdaa385411811e27bfd81d659a09e4b32637e9cac2aa5cea2cecad1ebf804c4bf467148f06ca8e43139a230acb671755a561baf2f8ca73e44058044f4a4cc77c
67fe17be3b1e0511706b807646b803718f92da22a4244e43873247b368beef0ae723d0e7692c086ebf1ee911780421dd139a230acb671755ce3d2227d1be8664
759f2c304c5cd59b6864bccbea1c4ab68fdb42690e9f6973e8e6ee0c12611f71b18703df45245a2ea8b30c7144fb5d9ec1f22fcc66f954f163471229a5916ed1
c14b62c9ec127acbb49030fec72dc3ad69325e870ce0470f8a1e36020d4faf9a7101c2026cc3cd9c68772dc8b768c9d97c429542ee8cc384213a92fda8cabc7a
2102d6771aef6b5a525f4881cdcee43cf835017f3393da0a172d19c1beaab3f18f92da22a4244e434861b21c0830f2598bc342f3e6d7d4b7fca3e20ca5526099
b32eae440ae09a4785ca69fda8cf338a4d35758c28ff525c48abf060fcb7e1b91d1e5c60cf87fe74f0d58561785e0f289285c2c86bc88f4909c84992926ee5c9
cdaa385411811e27bfd81d659a09e4b32637e9cac2aa5ceafd49a287c76beca9cf3db11be05038854d35758c28ff525c48abf060fcb7e1b967835c61454658c7
2c111b14f340aa46bc27f931268b4061302063c5af3db6581b478bba2f6337d3360e44e94f536633bf1c477fc0523b2df9f396cc51df82847901e5a885db8246
1c04f0bc4efea1a7eb878487763963838267670f17eb4a37806dce710dd337af30122b295948d903dd7c228b885ef9f1644126c9831a96bd222536b48a424ace
2c111b14f340aa46a665d0fac02ce03e302063c5af3db658a8aa6c2b2edc6934360e44e94f536633f3ad8d378f9696a3f9f396cc51df82847901e5a885db8246
2102d6771aef6b5addb4b29aaeb56c85bfbec7d40acd72cb39dea15d997406fba1386adaec88cb7453aaebfed34bc7148a0ef896630343447e2fb0c3b458badf
bc8010599de6f88bf60ecfe3dff4fab2958628f42271f6a22b4c7e434143b457f4c65b60f6a4495166968cfd01222b0fc681c551445bd633f44779c376922560
cdaa385411811e27bfd81d659a09e4b32637e9cac2aa5cea2cecad1ebf804c4bf467148f06ca8e43139a230acb671755a561baf2f8ca73e44058044f4a4cc77c
7338867859433855a665d0fac02ce03e302063c5af3db6580101d95eaea2fdc2360e44e94f536633025e8a1e0e2be890341ec13a5e4dea74e7bfa11a7d3f9f51
a536beeb1eeb1b97cefb5287645842f1d67fa11198df1f5decb1e4faaf3eb18297710d3bc9613e967ec65276d74197379b29b740d0a089bcc23515190ce963a3
cdaa385411811e27bfd81d659a09e4b32637e9cac2aa5cea2cecad1ebf804c4bf467148f06ca8e43139a230acb671755a561baf2f8ca73e44058044f4a4cc77c
df333b26067100d8706b807646b803718f92da22a4244e4354d2da8b6c6fd3c9bf1ee911780421dd139a230acb671755a561baf2f8ca73e44058044f4a4cc77c
0e84779c45a616934f731c0aef091a4286e17e6a7f230a2bb2d893311aed15dd3b354fde405869e469325e870ce0470f8a1e36020d4faf9aba1b628fbfe3ba86
759f2c304c5cd59b9f50c449b546348cf835017f3393da0af1494f1fa2b5d6f0749d13634498f34b2814ec203481f38f2f393eaecf8538c1da4d4f0f7d4483d1
babf698b184a002b8675a01b2db95be7b9b1213d51fc9ad3b886424db7d5a39f98261ae60b1a11e51fa218669804dd4256257244c272a1e9678b4febfc8c6605
d13a9af450b7aa3b706b807646b803718f92da22a4244e431d0d92374013effe4d2f23a30635e436139a230acb671755a561baf2f8ca73e44058044f4a4cc77c
2102d6771aef6b5aa3691f164915ef96f835017f3393da0acb2cba93a12f4fc68f92da22a4244e43e385e2303ca228f8d62010e6ccbe030115498280a022d4f3
8dcea2cdd2d3d5cc9783ae8e4821c68fbaa78b47fb353ab35647b922eae5a7de3a2b9efc0982d4b5807682751762e56e8fad9dd3df36eeb3afe6ef58ba52a6d0
bbf0a766f49a242c2637e9cac2aa5ceafd49a287c76beca9cf3db11be05038854d35758c28ff525c48abf060fcb7e1b91d1e5c60cf87fe742e70afc1220aab72
33990d0e4a27460e706b807646b803718f92da22a4244e4373e33018b03f349029598775ffd9e016b9b1213d51fc9ad3b886424db7d5a39fdfc1cd8e705f3b0a
33990d0e4a27460ea665d0fac02ce03e302063c5af3db658230911f28af947a95485965f7ad8680bd67fa11198df1f5decb1e4faaf3eb182bedab133aba82e23
2102d6771aef6b5a628e6c2a84cc65ddf835017f3393da0acb2cba93a12f4fc68f92da22a4244e430082748e987836cb35c792664f9c8dc6e4e72beed32b1f99
5911b2e9db27761795d7fcca0b5012ccb9b1213d51fc9ad3b886424db7d5a39f98261ae60b1a11e51fa218669804dd4256257244c272a1e9678b4febfc8c6605
bbf0a766f49a242c2637e9cac2aa5cea2cecad1ebf804c4b55ae1019063fc52dd25ac130f7970ff6b9b1213d51fc9ad3b886424db7d5a39fdfc1cd8e705f3b0a
a57c003a15974cee706b807646b803711f25988e60cb0edaff0aee5a81387ad9452ac1e5a8f46fa8949e0297405d1edcb9b1213d51fc9ad3f715598da06c122c
2e640856c2b22b8d706b807646b803718f92da22a4244e430a8f64eca27e86faa48aa12cf3ed1aff958628f42271f6a22b4c7e434143b4579ec65203f10bf7e5
2102d6771aef6b5a7efa854bb4512d8d5f959c96a61b7164af15382386e7edfe489f24f2e62bba10a5c560b04b5dea58bcfe96dd80f5384cea5da16b35ac52f1
13863f5d3350d8b41c6e91fac17cfbdf958628f42271f6a22b4c7e434143b457f4c65b60f6a4495166968cfd01222b0fc681c551445bd633f44779c376922560
cdf85a395457b011957673035b26e32b3029f2e0b065b4a0742300cb23b889a1bb3fd7c8331395aeb09e2116325bc9f1bf29eb243cb365c181bf838f3fcb2f04
76772fcaed53044ff45310c19b6b8ee5af8e9c6d112bd0f228c6cbe3a52e0c20b09e2116325bc9f1bf29eb243cb365c152e74f0b06f4caed0760b726e1735222
e8eacf82456e0a7fbf230db17611f82fda22697c472b80126ba7b6b89d654b903d37958466ed91867dcae66007b05a5dfd004728c474ab1f5de45ad34b7f2819
8dcea2cdd2d3d5cc9783ae8e4821c68fbaa78b47fb353ab35647b922eae5a7de3a2b9efc0982d4b5807682751762e56e8fad9dd3df36eeb3afe6ef58ba52a6d0
bbf0a766f49a242c2637e9cac2aa5cea2cecad1ebf804c4bf467148f06ca8e43139a230acb671755a561baf2f8ca73e4372a9f54c0e78878da5fedfa3dac0fce
64cef435eccb9f9c706b807646b803718f7fff10e9eeba6b738bea890280187819f4fbf09a72fb79b09e2116325bc9f1bf29eb243cb365c181bf838f3fcb2f04
4d89d626997625d7706b807646b8037117ab39475244c5f9bd5aad3790afc235aad0cae5ebf3019a5647b922eae5a7de3a2b9efc0982d4b5ad89d1f5293102a7
918b6aadecd4af26706b807646b80371c57d44b900e06a48c85feaf69ac4659169325e870ce0470f8a1e36020d4faf9a7101c2026cc3cd9c44519b62e7e9accd
0e84779c45a6169302be8e6414e577b442878df956a55a0639f3b69fc51d31aa4d35758c28ff525c48abf060fcb7e1b91d1e5c60cf87fe742e70afc1220aab72
c5d85887076c5785706b807646b80371bbfd44dc6218f4b52421f1909ea4ba0d23df78be1403f758b9b1213d51fc9ad3b886424db7d5a39fdfc1cd8e705f3b0a
aa8f52dadecd9f2456d8914e0e74c41eaf0e804c85ed03209ee8e65c3ae0b1a63c7adf5533f25672c7541ec212b258015647b922eae5a7defdb31f03b4c775ac
e8eacf82456e0a7fbc27f931268b4061da22697c472b80126ba7b6b89d654b90e9cf0de615c26df22070d27ed6685bd808eb135e841efad8450139be464a895d
b032015482838020d2208d979160a902d67fa11198df1f5decb1e4faaf3eb18297710d3bc9613e967ec65276d74197379b29b740d0a089bcc23515190ce963a3
8767f397bff4c3a731bbfa71d5efb6fe3ab97347ad0a000ba268022ecf61d5e2d67fa11198df1f5decb1e4faaf3eb18297710d3bc9613e9650b52f95710cd580
e8eacf82456e0a7fcd9f9b0fe66d8ad12ff3f9d6336a93069ee8e65c3ae0b1a64b29159185da5dac6c952f1aac28eec67bb04849f45a3672450139be464a895d
b032015482838020d2208d979160a902d67fa11198df1f5decb1e4faaf3eb18297710d3bc9613e967ec65276d74197379b29b740d0a089bcc23515190ce963a3
8767f397bff4c3a731bbfa71d5efb6fe825b843a3aa9ddcdb9b1213d51fc9ad3b886424db7d5a39f98261ae60b1a11e51fa218669804dd422d218db5df2c02b9
b10cc5b87d5c9a87706b807646b8037117ab39475244c5f94b1b4081a7bd3e66b193adabf69223f8cb4ce0d12fbd51f4b9b1213d51fc9ad3f715598da06c122c
8c4b1c6886ae0b48706b807646b8037117ab39475244c5f9f2bd5ba5ff12d453644126c9831a96bd5647b922eae5a7de3a2b9efc0982d4b5ad89d1f5293102a7
0e84779c45a61693e1a8bf41a186d3c6e09fc894591c02f2693f0a7dc959ae31f3432555e416015830f468ab4e6e29a9f4d59521544642ed694d4662482128bd
3861f06f44ff6a7bb33b37268c1ea4b0cb25333a58343694ae993edc56eb7a30ddff3ae7a7efbd203a4e33e2db47619ca126136245d06b6fdabcb2e4e3897788
c19d193bd1ff2412706b807646b8037129cb4e6444a56b4157a63669ef21cfd1e446a58b8a98a35c62d7fc06aea0b62b958628f42271f6a2d8661ea0f2294ea8
48d387f4c4bd0167908295b3613f26e6b33b37268c1ea4b07364728174a0d87de74a32f31924cb7d9f7df7e1d853713729cb4e6444a56b417ad9f50c2fd43e07
0c085d118f9cb8dfe71f71e1875841715647b922eae5a7de3a2b9efc0982d4b5807682751762e56e8fad9dd3df36eeb31b69b042cc8871b70e46e8492f36f7bd
e8eacf82456e0a7fc12e63f53fc8b6c795ab3faba914e4696bae40b89588536929cb4e6444a56b4135379a53535a163adf0889ccd206fc0fb449e5776ac6fef9
8dcea2cdd2d3d5cc9783ae8e4821c68fbaa78b47fb353ab35647b922eae5a7de3a2b9efc0982d4b5807682751762e56e8fad9dd3df36eeb3afe6ef58ba52a6d0
bbf0a766f49a242c2637e9cac2aa5ceafd49a287c76beca9cf3db11be05038854d35758c28ff525c48abf060fcb7e1b91d1e5c60cf87fe742e70afc1220aab72
d01c72e96876b39a49fa9c63bf0ef402905b7703046c2129093da1c12ea1c4cbb674f9b4cc7da5b2958628f42271f6a22b4c7e434143b4579ec65203f10bf7e5